Version 4
SHEET 1 1424 680
WIRE -176 -48 -320 -48
WIRE 0 -48 -176 -48
WIRE 272 -48 0 -48
WIRE 544 -48 272 -48
WIRE 752 -48 624 -48
WIRE 864 -48 752 -48
WIRE 1104 -48 928 -48
WIRE 1232 -48 1104 -48
WIRE 1328 -48 1232 -48
WIRE 272 -32 272 -48
WIRE 752 -16 752 -48
WIRE 928 16 928 -48
WIRE 0 32 0 -48
WIRE 112 32 0 32
WIRE 496 32 432 32
WIRE 1104 48 1104 -48
WIRE 1232 48 1232 -48
WIRE 1328 48 1328 -48
WIRE 1344 48 1328 48
WIRE 704 64 576 64
WIRE 1344 96 1344 48
WIRE 112 128 -192 128
WIRE 576 128 576 64
WIRE 576 128 432 128
WIRE 928 128 928 96
WIRE 928 128 848 128
WIRE 752 144 752 80
WIRE 752 144 640 144
WIRE 928 144 928 128
WIRE 112 224 -96 224
WIRE 640 224 640 144
WIRE 640 224 432 224
WIRE -96 304 -96 224
WIRE -192 320 -192 128
WIRE 112 320 16 320
WIRE 848 320 848 128
WIRE 848 320 432 320
WIRE 1104 368 1104 112
WIRE 1232 368 1232 112
WIRE 1232 368 1104 368
WIRE 1344 368 1344 176
WIRE 1344 368 1232 368
WIRE 752 384 752 224
WIRE 928 384 928 224
WIRE 1104 384 1104 368
FLAG -176 32 0
FLAG 272 384 0
FLAG -320 16 0
FLAG 752 384 0
FLAG 1104 384 0
FLAG 928 384 0
FLAG -96 384 0
FLAG -192 384 0
FLAG 16 464 0
FLAG 496 96 0
SYMBOL voltage -176 -64 R0
WINDOW 123 0 0 Left 0
WINDOW 39 0 0 Left 0
SYMATTR InstName V1
SYMATTR Value 9
SYMBOL cap -336 -48 R0
SYMATTR InstName C1
SYMATTR Value 10µF
SYMBOL ind 528 -32 R270
WINDOW 0 32 56 VTop 2
WINDOW 3 5 56 VBottom 2
SYMATTR InstName L1
SYMATTR Value 100µH
SYMBOL nmos 704 -16 R0
SYMATTR InstName M1
SYMATTR Value IXTH88N30P
SYMBOL res 736 128 R0
SYMATTR InstName R1
SYMATTR Value 0.004
SYMBOL diode 864 -32 R270
WINDOW 0 32 32 VTop 2
WINDOW 3 0 32 VBottom 2
SYMATTR InstName D1
SYMATTR Value MUR460
SYMBOL res 912 128 R0
SYMATTR InstName R2
SYMATTR Value 10000
SYMBOL res 912 0 R0
SYMATTR InstName R3
SYMATTR Value 1300000
SYMBOL cap 1088 48 R0
SYMATTR InstName C3
SYMATTR Value 10µF
SYMBOL cap 1216 48 R0
SYMATTR InstName C4
SYMATTR Value 5µF
SYMBOL res -112 288 R0
SYMATTR InstName R4
SYMATTR Value 41.2k
SYMBOL res 1328 80 R0
SYMATTR InstName R5
SYMATTR Value 10k
SYMBOL cap -208 320 R0
SYMATTR InstName C5
SYMATTR Value 0.1µF
SYMBOL res 0 304 R0
SYMATTR InstName R7
SYMATTR Value 10k
SYMBOL cap 0 400 R0
SYMATTR InstName C2
SYMATTR Value 10nF
SYMBOL PowerProducts\\LT3757A 272 176 R0
SYMATTR InstName U2
SYMBOL cap 480 32 R0
SYMATTR InstName C6
SYMATTR Value 0.1µF
TEXT -344 408 Left 2 !.tran 00.01
